48
Properties=species:S:1:pos:R:3:forces:R:3 charge=0 spin=4 energy=-76350.3147360462 stress="0.7327781915664673 -0.644545316696167 -0.7000729441642761 -0.644545316696167 1.3034577369689941 -1.0709561109542847 -0.7000729441642761 -1.0709561109542847 0.10779803991317749" free_energy=-76350.3147360462 pbc="F F F"
S        0.14724355      -0.97527697       2.17186303      -0.03224232       0.07805808      -0.06532357
O       -0.28609019       1.20186529      -1.47186948       0.73955196      -0.17138697       1.22751689
Fe      -0.04041402       0.20127554       0.17541810      -0.00477838       0.28789374      -0.46696818
N       -0.23849300      -1.53120949      -0.81384640      -0.02710901      -0.00985163       0.07628026
N       -2.02204405       0.27514322       0.48490674       0.03543735      -0.00002110      -0.01805546
N        0.16408506       1.91995640       1.18798495      -0.00880318      -0.07795856       0.01947575
N        1.94060243       0.12369968      -0.11830115      -0.05101351      -0.03331305       0.02136801
C        0.73964548      -2.24179003      -1.44349606       0.04788329       0.09000109       0.03885007
C        0.18410744      -3.41754681      -2.05060034       0.00896429      -0.06093397       0.00542596
C       -1.14022514      -3.41020545      -1.76942733      -0.03057163      -0.05772959      -0.01426470
C       -1.39483099      -2.22393062      -1.00536512       0.06931485       0.12206797       0.04404015
C       -2.93728560      -0.66167106       0.10324768       0.09841862       0.02511532      -0.00259632
C       -4.25809874      -0.24948252       0.49538422      -0.06250241      -0.03705590      -0.00818934
C       -4.12393895       0.94151448       1.11797286      -0.03709396       0.04702788       0.03441034
C       -2.72149392       1.25452385       1.11029481       0.12614083      -0.02875731      -0.02843899
C       -0.82337443       2.67912585       1.72851776       0.01759029      -0.09628322      -0.05911504
C       -0.26566704       3.83109069       2.38775689      -0.05692978       0.04087156       0.03708641
C        1.07213511       3.74826901       2.24339228       0.07811230       0.02195176       0.03024059
C        1.33264068       2.54996448       1.48852415      -0.05951102      -0.08425182      -0.04562783
C        2.86600476       1.00424491       0.35371564      -0.08775362      -0.00594004      -0.00746827
C        4.17891647       0.62683484      -0.08159233       0.02748296       0.07349137       0.03057210
C        4.03430662      -0.49165577      -0.83027504       0.02873720      -0.03362004      -0.02527790
C        2.63454109      -0.80194926      -0.84143239      -0.08441679       0.02553969      -0.01478215
C        2.08060445      -1.90130626      -1.47684740      -0.11792090       0.07920270       0.06171587
H        2.75058672      -2.55484207      -2.01804473       0.00316946      -0.00939914      -0.01282836
C       -2.65364899      -1.82854428      -0.57515206       0.08905771       0.05343687       0.02538000
H       -3.48358842      -2.48078740      -0.81166960       0.00587252       0.00321564      -0.00058022
C       -2.17221685       2.38648295       1.68873442       0.04536973      -0.04999689      -0.04434533
H       -2.84900477       3.08257767       2.16308274      -0.01478630       0.01820797       0.00527509
C        2.59123210       2.12692156       1.11737703      -0.06332809      -0.04708790      -0.06569666
H        3.43185936       2.73638113       1.42094346      -0.00772145      -0.00483578       0.01398012
C       -1.27398698       0.36425401      -3.25577197      -0.27335981      -0.50474823      -1.06468618
H        0.39203803       0.90608032      -2.09734134       0.01762849       0.22239427       0.23511949
H       -1.00923874       1.15337905      -3.94407121      -0.04190856       0.01106950       0.06111298
H       -0.78753191      -0.59686513      -3.36965651      -0.06222352       0.04871611      -0.00383469
H       -2.22202446       0.39613006      -2.76458280      -0.26007983       0.02641158       0.11280363
C        1.42799575      -2.23085792       1.95638205      -0.01640343       0.03096293       0.00932758
H        0.75448923      -4.14854136      -2.60138260      -0.01701744       0.00172799      -0.02673343
H       -1.89563267      -4.12736871      -2.05156989       0.02745064       0.00613424      -0.01275334
H       -5.15772102      -0.81186815       0.29948712       0.00820020       0.00702602       0.01227622
H       -4.88421743       1.57304559       1.55029912      -0.02189907      -0.03077533      -0.01249046
H       -0.85083896       4.58183583       2.89597384       0.03557547       0.01113443      -0.01235115
H        1.83603410       4.42011283       2.60387704      -0.02794325       0.00161704      -0.01133273
H        5.07873503       1.17478936       0.15300424      -0.00174104      -0.04375214      -0.00583517
H        4.79181708      -1.06679218      -1.33928045       0.00459961       0.00094887       0.01357226
H        1.47692317      -2.77960155       2.90095466      -0.03486814       0.05003734      -0.06071907
H        1.17774792      -2.93423143       1.16398772      -0.00830428      -0.01464043      -0.02076444
H        2.40731561      -1.79317420       1.76849364      -0.00232784       0.01807681      -0.00477105
