48
Properties=species:S:1:pos:R:3:forces:R:3 charge=0 spin=4 energy=-76350.20181290091 stress="0.04893084615468979 0.1770496964454651 0.6199000477790833 0.1770496964454651 0.030005568638443947 0.6561921834945679 0.6199000477790833 0.6561921834945679 0.691356360912323" free_energy=-76350.20181290091 pbc="F F F"
S        0.08705624      -1.00267072       2.13464681       0.00149092       0.01410081       0.08749603
O       -0.20511808       1.25622140      -1.34027691      -0.00227128      -0.01718367      -0.12173289
Fe      -0.03021653       0.23596509       0.17407351       0.00404715      -0.03226435       0.05078546
N       -0.24306934      -1.47547644      -0.83450017       0.01113733       0.01874248       0.04443864
N       -2.00878375       0.30468554       0.51601504       0.07236031      -0.00897658      -0.04044964
N        0.18851013       1.93447785       1.23135824       0.00124397      -0.05161682      -0.06551284
N        1.95322385       0.12409167      -0.06925800      -0.05636812       0.00952909      -0.00819376
C        0.73295476      -2.19573105      -1.44872134      -0.01294146       0.01523902       0.00443541
C        0.17237269      -3.36664663      -2.06692286       0.00254018      -0.00076459       0.01035654
C       -1.15532329      -3.34217399      -1.80722063      -0.00466722       0.02212746      -0.00469462
C       -1.40304828      -2.15213117      -1.04152702       0.01159271       0.00308778       0.01800330
C       -2.93161252      -0.59772501       0.09084029       0.00567032      -0.01720533       0.00977203
C       -4.25181244      -0.18313288       0.48707682       0.01341536       0.01941109       0.00398754
C       -4.10491429       0.98065643       1.15845814       0.02922150      -0.01595341      -0.01494306
C       -2.69753556       1.27446244       1.16821455       0.02761621      -0.02992840      -0.00070442
C       -0.79156217       2.67404676       1.80966953       0.00709920      -0.02163802      -0.00309265
C       -0.22750311       3.80038208       2.50765026       0.02902132      -0.02357080      -0.02719496
C        1.11075241       3.72148835       2.34631693      -0.03364369      -0.02746595      -0.00640522
C        1.35814877       2.54919909       1.54662780       0.00857285      -0.02536185       0.00889682
C        2.87669632       1.00252536       0.39580849      -0.02970013      -0.01685417       0.00882211
C        4.19075800       0.62881822      -0.04847979      -0.02573420      -0.00612781      -0.00747609
C        4.04161505      -0.48500801      -0.80221027      -0.00123562       0.00469631       0.00993524
C        2.63791146      -0.79092328      -0.80867113       0.00658690       0.01644660      -0.01269558
C        2.07683346      -1.87144610      -1.45852778       0.01397601      -0.00779440      -0.02124142
H        2.74418302      -2.53013090      -1.99899875      -0.01208678       0.00977364      -0.00650642
C       -2.65603888      -1.74813108      -0.61807875      -0.01918465      -0.00460095      -0.00283945
H       -3.49293169      -2.38289601      -0.87786452       0.00582696      -0.00517266       0.00812708
C       -2.13850428       2.38036105       1.77811866      -0.02189593       0.02301228      -0.01607133
H       -2.80908314       3.06184819       2.28284004      -0.01178226       0.01586494      -0.00097722
C        2.61083104       2.12066274       1.16587987       0.01435315       0.01936531      -0.01935613
H        3.45700122       2.71874772       1.47560808       0.00890752       0.00268610       0.01064616
C       -1.16781697       0.13327792      -3.42857753       0.48625684       0.43755588       0.93364608
H       -0.52962485       0.62124642      -2.39975801      -0.58712786      -0.32902911      -0.70779109
H       -0.98742525       0.86823636      -4.20358252      -0.00469426       0.02367952      -0.09000392
H       -0.75722593      -0.84587930      -3.65131630       0.05252006      -0.01336830       0.00723821
H       -2.20514193       0.09682444      -3.10797230       0.05155289       0.01022593      -0.02101234
C        1.48345161      -2.13256750       1.98576221      -0.01996814       0.00121980       0.02275966
H        0.74017664      -4.10535853      -2.60832858       0.01131835      -0.01689300      -0.03788776
H       -1.91505813      -4.04783662      -2.10059503      -0.00849952      -0.03603347      -0.01927646
H       -5.15650955      -0.72418400       0.26611778      -0.04433746      -0.03427549       0.00179780
H       -4.85743469       1.60373362       1.61228103      -0.06042366       0.00046784       0.00669231
H       -0.80404206       4.52958188       3.05202451      -0.00305563       0.05038523       0.01819990
H        1.87827794       4.37550089       2.72546005       0.02069561       0.04140500       0.01449252
H        5.08932576       1.17509257       0.18674072       0.05200003      -0.01917846       0.00046091
H        4.79603268      -1.05666135      -1.31723282       0.02911495      -0.02152837      -0.01248187
H        1.49209772      -2.73283631       2.89543688       0.01410432      -0.02349460       0.00250277
H        1.37826826      -2.80215442       1.13203640      -0.03986531       0.02812420      -0.01106763
H        2.43085767      -1.60043277       1.91355836       0.00724067       0.01913390      -0.00388407
