52
Properties=species:S:1:pos:R:3:forces:R:3 charge=0 spin=1 energy=-37508.85990089682 stress="4.145534992218018 2.1206092834472656 -2.1302342414855957 2.1206092834472656 -4.041147232055664 -5.6742987632751465 -2.1302342414855957 -5.6742987632751465 0.39905017614364624" free_energy=-37508.85990089682 pbc="F F F"
C        1.41226044       1.37743517      -1.07783318       0.15637629       0.08549599       0.30585691
O        2.00460629       0.92108982      -2.28167550      -0.14013800      -0.08979805       0.14449373
C        0.30484942       1.15407270       1.53923332       0.22113946      -0.07485366       0.39288628
C        2.26302908       0.92443506       0.09890264      -0.06579072      -0.06010285       0.19049791
C       -0.01057498       0.74833767      -0.94175485      -0.32655531       5.08943653       1.22953439
C       -1.50908600      -0.70932988       1.01963013       0.44491783       0.91761017      -0.44235519
C       -2.29815633      -0.87657751      -0.24831281       0.03345321      -0.05128308       0.15330297
C       -0.03610636      -0.62115032      -1.21375747       0.08754604      -5.36987782      -0.74196005
H        0.54330536      -0.81488004      -2.09573306       0.27475595      -0.18229006      -0.56335771
C       -1.46672076      -1.10740618      -1.50212648      -0.26498747      -0.25279659      -0.03350296
C        0.53154454      -1.44132531      -0.06012621       0.19575283      -0.50137413      -0.64572191
C       -0.22743252      -1.47246990       1.05461153      -0.52336335       0.21755029       0.21050945
O        0.12017513      -2.02374141       2.20977907      -0.04871232       0.16662540      -0.13417517
O       -3.50434653      -0.76192177      -0.29809912       0.33189097      -0.12200932       0.01281822
C        1.79106445      -2.16816138      -0.06177426       0.22655860       0.05626903       0.03037108
O        2.24144292      -2.63682921       0.99388297      -0.10401339      -0.01664338      -0.12013841
C       -1.58175084      -2.59156587      -1.87138013      -0.10822980      -0.08556947      -0.02733826
H       -1.03229979      -2.79827754      -2.78968167       0.12732212       0.09825598       0.03908525
H       -1.25414768      -3.27664629      -1.08985499       0.13055444       0.11308959       0.05088530
H       -2.63406279      -2.81183313      -2.06839857       0.02991864       0.06218613       0.02010557
C        1.45669897       2.91639126      -1.10220943       0.01181371       0.04371333       0.02204753
H        1.07668866       3.39020324      -0.19688725      -0.17729089      -0.11505159       0.01898147
H        2.50214768       3.22943193      -1.20940685      -0.13006617      -0.14610872       0.03317501
H        0.92630381       3.30267503      -1.97381340      -0.12915902      -0.13093764       0.03786172
C       -2.36823482      -0.75408380       2.27324948       0.07538295       0.35760874      -0.13563216
H       -1.76003839      -0.75467110       3.17205736      -0.00685306       0.16418011      -0.05484675
H       -3.03243798       0.10391901       2.25790814      -0.08806291       0.14967847       0.22975364
H       -3.02297701      -1.64035999       2.31935256       0.39785412       0.15933166      -0.42618543
O        3.42543736       0.60297784      -0.08423485      -0.01596828       0.02420204      -0.10922520
O       -2.01460616      -0.33803931      -2.55924285       0.05205927       0.00988000      -0.05636297
H       -2.97657750      -0.38919530      -2.46341017      -0.01217528      -0.03405539      -0.03566283
C       -1.77998108       2.11067045       0.48473955      -0.20540868      -0.02479175       0.50392640
O       -1.82855751       2.90922134       1.39332155       0.37880930      -0.23383701      -0.34800345
H        1.05993399      -2.35120013       2.06477576      -0.12025104      -0.09853357      -0.13415679
C        2.52374105       0.80653549       2.62127889      -0.01381769       0.03057561       0.04194997
H        2.59161514       1.72739547       3.20426745       0.02984117       0.06188599       0.03823739
H        2.15291658       0.01314024       3.27696547       0.02090744      -0.02886576       0.02290269
H        3.52883457       0.53276560       2.30659345      -0.05075424       0.00585612      -0.01153760
H       -0.58229248       1.26722787      -1.71001690      -0.23070186       0.02178256       0.00962783
C       -2.84670487       2.16978980      -0.57611361       0.11733705      -0.15101299      -0.18377537
H       -2.61536621       1.58289736      -1.45842234      -0.06626160       0.08073036      -0.06110461
H       -3.76545121       1.78411779      -0.13258128      -0.01409744      -0.03543888      -0.00674438
H       -3.01939953       3.21195054      -0.83683922       0.06064802       0.01971008       0.01000452
C        2.53921064      -2.37714831      -1.34743029      -0.02510445      -0.00300461       0.03740447
H        2.71121920      -1.43466543      -1.86241735      -0.03123418       0.03391456       0.01205787
H        3.48849570      -2.86210107      -1.14188745       0.00417205      -0.02829535       0.04053257
H        1.94426017      -3.00370443      -2.01418887      -0.03810539      -0.04566054      -0.03316180
C       -0.68692183       1.00444429       0.44956995      -0.49145564      -0.21465001       0.32031560
C        1.64129456       0.96592445       1.41719554      -0.03759301       0.24097194      -0.03155164
H        2.94679546       0.79042326      -2.07138778      -0.11509561       0.03521503       0.04000735
O       -0.27045609       1.28894953       2.74806658       0.10230824      -0.23306851       0.07108517
H        0.39681610       1.18086237       3.43561679       0.06992759       0.08415385       0.06628238
