52
Properties=species:S:1:pos:R:3:forces:R:3 charge=0 spin=1 energy=-37508.40286726264 stress="-0.3955899178981781 -0.11164236813783646 0.2912440598011017 -0.11164236813783646 -1.0923136472702026 0.2904053330421448 0.2912440598011017 0.2904053330421448 0.12506647408008575" free_energy=-37508.40286726264 pbc="F F F"
C        1.44306240       1.46264240      -1.09819130       0.04382104      -0.05998429      -0.01762260
O        1.94182623       0.91439059      -2.29638633       0.01306098      -0.02083921      -0.02717838
C        0.31769849       1.24845687       1.49473281       0.03540489       0.01506543       0.03716466
C        2.27248767       0.97102159       0.07281321       0.02046899      -0.02082518       0.00014287
C       -0.02141562       1.16461609      -0.90949194      -0.03283004       0.54835194       0.28064340
C       -1.63212791      -1.10910169       1.09522467       0.06704070      -0.10726016      -0.02823499
C       -2.30298543      -0.92933913      -0.17671431       0.03427472      -0.00540003       0.03486657
C       -0.03612360      -0.95065983      -1.21650419       0.07259405      -0.55933970       0.11319432
H        0.56616545      -0.90837038      -2.11383646       0.01550392       0.04114195      -0.02916907
C       -1.49983322      -1.17449696      -1.44421063      -0.04285250       0.07986791       0.03633523
C        0.50644229      -1.49961112      -0.06591455      -0.04133024       0.10559954      -0.20602916
C       -0.33117291      -1.55983899       1.11007115      -0.17819992       0.01652722       0.11448454
O        0.18955611      -1.95197595       2.27847042       0.02956790       0.00518383       0.00458947
O       -3.48529825      -0.64227878      -0.28994163      -0.00007846      -0.00049654      -0.01447699
C        1.87300248      -2.07087448      -0.02692347       0.06519820      -0.03741477       0.05536367
O        2.36160175      -2.45163596       1.03264262      -0.01635475       0.04057051      -0.03246019
C       -1.68660989      -2.65970871      -1.81928209       0.01120184      -0.02372025       0.00364307
H       -1.12334734      -2.87269597      -2.72748819       0.01129741       0.00503613      -0.00381094
H       -1.35839667      -3.32451326      -1.02199981      -0.00723563      -0.01609943       0.01347075
H       -2.74541991      -2.82652191      -2.01413887      -0.02658456      -0.01630919       0.00634666
C        1.59531725       2.99634271      -1.15446976       0.00501545       0.01176519       0.00315543
H        1.23257030       3.46945590      -0.24271403       0.02052307       0.01018366       0.00321164
H        2.64922566       3.23839182      -1.29479397      -0.00099479       0.00998324      -0.00355582
H        1.02777475       3.37190275      -2.00530921       0.00684085       0.01007138      -0.00568453
C       -2.44419558      -0.95317167       2.33911316       0.00095645      -0.02286813       0.00209838
H       -1.80472835      -0.93810838       3.21600697      -0.03466917      -0.00236731       0.02235119
H       -3.01855414      -0.02743531       2.29137130       0.01276343      -0.02075493       0.02863334
H       -3.15865060      -1.77501650       2.43205801      -0.00372491       0.01109778       0.00513194
O        3.42796141       0.62968611      -0.13854777      -0.00405393       0.03401282      -0.00704576
O       -1.99466351      -0.38363913      -2.49954448      -0.02183662       0.00789048       0.00004686
H       -2.95297811      -0.34025703      -2.34633416       0.00463913       0.02087392      -0.00985608
C       -1.89246805       2.10040500       0.50824180      -0.05391830      -0.03329625      -0.05192806
O       -2.17401476       2.63198702       1.55702742      -0.02083115      -0.02197789      -0.01065171
H        1.12708274      -2.21699883       2.09904459      -0.00785562       0.00900260      -0.00395386
C        2.50616411       0.69719559       2.58384065      -0.00963051      -0.01370864      -0.01319528
H        2.60272341       1.58531373       3.21662274      -0.01302705      -0.02266603      -0.00169924
H        2.10434449      -0.11835977       3.19268308       0.00166088      -0.00064393      -0.00873962
H        3.50308949       0.40892410       2.25937465      -0.00705890      -0.01784685      -0.00454135
H       -0.62488160       1.36726688      -1.78299219      -0.03258672      -0.01270207      -0.04851267
C       -2.81096613       2.26989122      -0.67819667      -0.01919008       0.03068181       0.02265793
H       -2.56846470       1.65416430      -1.53408225      -0.00662808       0.00188599      -0.02428547
H       -3.82159503       2.04423673      -0.34409824      -0.00097203       0.00613958      -0.00583507
H       -2.77783271       3.32069516      -0.96953824       0.01151252       0.02973919      -0.00041822
C        2.60216293      -2.29945672      -1.31631483      -0.00139827       0.00228161      -0.01349563
H        2.67259384      -1.38083242      -1.89309736       0.01493776       0.00378228      -0.01484742
H        3.59415975      -2.68525526      -1.10112902       0.00140706       0.01602859       0.01427098
H        2.04443447      -3.02160612      -1.91667407       0.02000997      -0.02011661      -0.00126755
C       -0.56565546       1.40617451       0.34194058       0.09179381      -0.01145557      -0.18092899
C        1.65185453       0.97641666       1.38093944      -0.00467305      -0.01499442      -0.00743558
H        2.89709893       0.81783809      -2.14464583      -0.01698333       0.00638150      -0.00292173
O       -0.26458420       1.27339701       2.70176437      -0.01120111      -0.00070288       0.00533767
H        0.38656273       1.05094744       3.37952220       0.00520451       0.00464387      -0.02735881
